650007
  -OEChem-07071010512D

 32 34  0     0  0  0  0  0  0999 V2000
    4.3794   -1.6516    0.0000 S   0  0  0  0  0  0  0  0  0  0  0  0
    7.0820    2.8429    0.0000 O   0  0  0  0  0  0  0  0  0  0  0  0
    4.4839    1.3429    0.0000 O   0  0  0  0  0  0  0  0  0  0  0  0
    5.3500    2.8429    0.0000 O   0  0  0  0  0  0  0  0  0  0  0  0
    5.3500   -0.1571    0.0000 N   0  0  0  0  0  0  0  0  0  0  0  0
    2.9013   -0.9935    0.0000 N   0  0  0  0  0  0  0  0  0  0  0  0
    3.5704   -0.2503    0.0000 N   0  0  0  0  0  0  0  0  0  0  0  0
    7.9480    1.3429    0.0000 C   0  0  0  0  0  0  0  0  0  0  0  0
    7.9480    2.3429    0.0000 C   0  0  0  0  0  0  0  0  0  0  0  0
    6.2160    1.3429    0.0000 C   0  0  0  0  0  0  0  0  0  0  0  0
    7.0820    0.8429    0.0000 C   0  0  0  0  0  0  0  0  0  0  0  0
    8.8420    0.8083    0.0000 C   0  0  0  0  0  0  0  0  0  0  0  0
    6.2160    2.3429    0.0000 C   0  0  0  0  0  0  0  0  0  0  0  0
    5.3500    0.8429    0.0000 C   0  0  0  0  0  0  0  0  0  0  0  0
    2.9945   -2.7731    0.0000 C   0  0  0  0  0  0  0  0  0  0  0  0
    8.8420    2.8776    0.0000 C   0  0  0  0  0  0  0  0  0  0  0  0
    3.4013   -1.8595    0.0000 C   0  0  0  0  0  0  0  0  0  0  0  0
    9.7480    1.3221    0.0000 C   0  0  0  0  0  0  0  0  0  0  0  0
    4.4839   -0.6571    0.0000 C   0  0  0  0  0  0  0  0  0  0  0  0
    9.7480    2.3637    0.0000 C   0  0  0  0  0  0  0  0  0  0  0  0
    2.0000   -2.8776    0.0000 C   0  0  0  0  0  0  0  0  0  0  0  0
    7.0820    0.2229    0.0000 H   0  0  0  0  0  0  0  0  0  0  0  0
    8.8348    0.1883    0.0000 H   0  0  0  0  0  0  0  0  0  0  0  0
    2.9513   -3.3916    0.0000 H   0  0  0  0  0  0  0  0  0  0  0  0
    3.5961   -2.9230    0.0000 H   0  0  0  0  0  0  0  0  0  0  0  0
    8.8348    3.4975    0.0000 H   0  0  0  0  0  0  0  0  0  0  0  0
    5.8869   -0.4671    0.0000 H   0  0  0  0  0  0  0  0  0  0  0  0
   10.2838    1.0100    0.0000 H   0  0  0  0  0  0  0  0  0  0  0  0
   10.2838    2.6758    0.0000 H   0  0  0  0  0  0  0  0  0  0  0  0
    1.9352   -2.2610    0.0000 H   0  0  0  0  0  0  0  0  0  0  0  0
    1.3834   -2.9424    0.0000 H   0  0  0  0  0  0  0  0  0  0  0  0
    2.0648   -3.4942    0.0000 H   0  0  0  0  0  0  0  0  0  0  0  0
  1 17  1  0  0  0  0
  1 19  1  0  0  0  0
  2  9  1  0  0  0  0
  2 13  1  0  0  0  0
  3 14  2  0  0  0  0
  4 13  2  0  0  0  0
  5 14  1  0  0  0  0
  5 19  1  0  0  0  0
  5 27  1  0  0  0  0
  6  7  1  0  0  0  0
  6 17  2  0  0  0  0
  7 19  2  0  0  0  0
  8  9  1  0  0  0  0
  8 11  1  0  0  0  0
  8 12  2  0  0  0  0
  9 16  2  0  0  0  0
 10 11  2  0  0  0  0
 10 13  1  0  0  0  0
 10 14  1  0  0  0  0
 11 22  1  0  0  0  0
 12 18  1  0  0  0  0
 12 23  1  0  0  0  0
 15 17  1  0  0  0  0
 15 21  1  0  0  0  0
 15 24  1  0  0  0  0
 15 25  1  0  0  0  0
 16 20  1  0  0  0  0
 16 26  1  0  0  0  0
 18 20  2  0  0  0  0
 18 28  1  0  0  0  0
 20 29  1  0  0  0  0
 21 30  1  0  0  0  0
 21 31  1  0  0  0  0
 21 32  1  0  0  0  0
M  END
> <PUBCHEM_COMPOUND_CID>
650007

> <PUBCHEM_COMPOUND_CANONICALIZED>
1

> <PUBCHEM_CACTVS_COMPLEXITY>
468

> <PUBCHEM_CACTVS_HBOND_ACCEPTOR>
5

> <PUBCHEM_CACTVS_HBOND_DONOR>
1

> <PUBCHEM_CACTVS_ROTATABLE_BOND>
3

> <PUBCHEM_CACTVS_SUBSKEYS>
AAADccBzMABAAAAAAAAAAAAAAAAAAWAAAAAwQAAAAAAAAACBwAAAHgQYAAAADASB2gAzHoLABAiuAiHyOACSCIJgIBkdiAE2CMiMJi6sORqGOiC26RMIqYeAwCAOAAAAAAAIAAAAAAAAABAAAAAAAAAAAA==

> <PUBCHEM_IUPAC_OPENEYE_NAME>
N-(5-ethyl-1,3,4-thiadiazol-2-yl)-2-oxo-chromene-3-carboxamide

> <PUBCHEM_IUPAC_CAS_NAME>
N-(5-ethyl-1,3,4-thiadiazol-2-yl)-2-oxo-1-benzopyran-3-carboxamide

> <PUBCHEM_IUPAC_NAME>
N-(5-ethyl-1,3,4-thiadiazol-2-yl)-2-oxochromene-3-carboxamide

> <PUBCHEM_IUPAC_SYSTEMATIC_NAME>
N-(5-ethyl-1,3,4-thiadiazol-2-yl)-2-oxidanylidene-chromene-3-carboxamide

> <PUBCHEM_IUPAC_TRADITIONAL_NAME>
N-(5-ethyl-1,3,4-thiadiazol-2-yl)-2-keto-chromene-3-carboxamide

> <PUBCHEM_NIST_INCHI>
InChI=1S/C14H11N3O3S/c1-2-11-16-17-14(21-11)15-12(18)9-7-8-5-3-4-6-10(8)20-13(9)19/h3-7H,2H2,1H3,(H,15,17,18)

> <PUBCHEM_NIST_INCHIKEY>
ZPURANXTDWMLLG-UHFFFAOYSA-N

> <PUBCHEM_XLOGP3_AA>
2.6

> <PUBCHEM_EXACT_MASS>
301.052112

> <PUBCHEM_MOLECULAR_FORMULA>
C14H11N3O3S

> <PUBCHEM_MOLECULAR_WEIGHT>
301.32044

> <PUBCHEM_OPENEYE_CAN_SMILES>
CCC1=NN=C(S1)NC(=O)C2=CC3=CC=CC=C3OC2=O

> <PUBCHEM_OPENEYE_ISO_SMILES>
CCC1=NN=C(S1)NC(=O)C2=CC3=CC=CC=C3OC2=O

> <PUBCHEM_CACTVS_TPSA>
81.2

> <PUBCHEM_MONOISOTOPIC_WEIGHT>
301.052112

> <PUBCHEM_TOTAL_CHARGE>
0

> <PUBCHEM_HEAVY_ATOM_COUNT>
21

> <PUBCHEM_ATOM_DEF_STEREO_COUNT>
0

> <PUBCHEM_ATOM_UDEF_STEREO_COUNT>
0

> <PUBCHEM_BOND_DEF_STEREO_COUNT>
0

> <PUBCHEM_BOND_UDEF_STEREO_COUNT>
0

> <PUBCHEM_ISOTOPIC_ATOM_COUNT>
0

> <PUBCHEM_COMPONENT_COUNT>
1

> <PUBCHEM_CACTVS_TAUTO_COUNT>
3

> <PUBCHEM_COORDINATE_TYPE>
1
3

> <PUBCHEM_BONDANNOTATIONS>
1  17  8
1  19  8
10  11  8
10  13  8
12  18  8
16  20  8
18  20  8
2  13  8
2  9  8
6  17  8
6  7  8
7  19  8
8  11  8
8  12  8
8  9  8
9  16  8


$$$$
