650008
  -OEChem-07071010512D

 50 54  0     0  0  0  0  0  0999 V2000
    3.0000    2.3282    0.0000 S   0  0  0  0  0  0  0  0  0  0  0  0
    3.0000    6.3282    0.0000 F   0  0  0  0  0  0  0  0  0  0  0  0
    2.0000    2.3282    0.0000 O   0  0  0  0  0  0  0  0  0  0  0  0
    4.0000    2.3282    0.0000 O   0  0  0  0  0  0  0  0  0  0  0  0
    3.0000    1.3282    0.0000 N   0  0  0  0  0  0  0  0  0  0  0  0
    3.0000   -0.6719    0.0000 N   0  0  0  0  0  0  0  0  0  0  0  0
    2.1340   -2.1718    0.0000 N   0  0  0  0  0  0  0  0  0  0  0  0
    4.8122   -3.4766    0.0000 N   0  0  0  0  0  0  0  0  0  0  0  0
    3.0000   -3.6718    0.0000 N   0  0  0  0  0  0  0  0  0  0  0  0
    5.3958   -2.6718    0.0000 N   0  0  0  0  0  0  0  0  0  0  0  0
    2.1340    0.8281    0.0000 C   0  0  0  0  0  0  0  0  0  0  0  0
    3.8660    0.8281    0.0000 C   0  0  0  0  0  0  0  0  0  0  0  0
    2.1340   -0.1719    0.0000 C   0  0  0  0  0  0  0  0  0  0  0  0
    3.8660   -0.1719    0.0000 C   0  0  0  0  0  0  0  0  0  0  0  0
    3.0000   -1.6718    0.0000 C   0  0  0  0  0  0  0  0  0  0  0  0
    3.8660   -2.1718    0.0000 C   0  0  0  0  0  0  0  0  0  0  0  0
    3.0000    3.3282    0.0000 C   0  0  0  0  0  0  0  0  0  0  0  0
    3.8660   -3.1718    0.0000 C   0  0  0  0  0  0  0  0  0  0  0  0
    4.8122   -1.8671    0.0000 C   0  0  0  0  0  0  0  0  0  0  0  0
    3.8660    3.8282    0.0000 C   0  0  0  0  0  0  0  0  0  0  0  0
    2.1340    3.8282    0.0000 C   0  0  0  0  0  0  0  0  0  0  0  0
    2.1340   -3.1718    0.0000 C   0  0  0  0  0  0  0  0  0  0  0  0
    5.1229   -4.4271    0.0000 C   0  0  0  0  0  0  0  0  0  0  0  0
    3.8660    4.8282    0.0000 C   0  0  0  0  0  0  0  0  0  0  0  0
    2.1340    4.8282    0.0000 C   0  0  0  0  0  0  0  0  0  0  0  0
    3.0000    5.3282    0.0000 C   0  0  0  0  0  0  0  0  0  0  0  0
    6.1014   -4.6333    0.0000 C   0  0  0  0  0  0  0  0  0  0  0  0
    4.4551   -5.1714    0.0000 C   0  0  0  0  0  0  0  0  0  0  0  0
    6.4121   -5.5838    0.0000 C   0  0  0  0  0  0  0  0  0  0  0  0
    4.7657   -6.1219    0.0000 C   0  0  0  0  0  0  0  0  0  0  0  0
    5.7442   -6.3282    0.0000 C   0  0  0  0  0  0  0  0  0  0  0  0
    1.9219    1.4108    0.0000 H   0  0  0  0  0  0  0  0  0  0  0  0
    1.5234    0.7205    0.0000 H   0  0  0  0  0  0  0  0  0  0  0  0
    4.4766    0.7205    0.0000 H   0  0  0  0  0  0  0  0  0  0  0  0
    4.0781    1.4108    0.0000 H   0  0  0  0  0  0  0  0  0  0  0  0
    1.5234   -0.0642    0.0000 H   0  0  0  0  0  0  0  0  0  0  0  0
    1.9219   -0.7545    0.0000 H   0  0  0  0  0  0  0  0  0  0  0  0
    4.0781   -0.7545    0.0000 H   0  0  0  0  0  0  0  0  0  0  0  0
    4.4766   -0.0642    0.0000 H   0  0  0  0  0  0  0  0  0  0  0  0
    5.0049   -1.2778    0.0000 H   0  0  0  0  0  0  0  0  0  0  0  0
    4.4030    3.5182    0.0000 H   0  0  0  0  0  0  0  0  0  0  0  0
    1.5970    3.5182    0.0000 H   0  0  0  0  0  0  0  0  0  0  0  0
    1.5970   -3.4818    0.0000 H   0  0  0  0  0  0  0  0  0  0  0  0
    4.4030    5.1382    0.0000 H   0  0  0  0  0  0  0  0  0  0  0  0
    1.5970    5.1382    0.0000 H   0  0  0  0  0  0  0  0  0  0  0  0
    6.5155   -4.1719    0.0000 H   0  0  0  0  0  0  0  0  0  0  0  0
    3.8484   -5.0436    0.0000 H   0  0  0  0  0  0  0  0  0  0  0  0
    7.0188   -5.7117    0.0000 H   0  0  0  0  0  0  0  0  0  0  0  0
    4.3517   -6.5834    0.0000 H   0  0  0  0  0  0  0  0  0  0  0  0
    5.9368   -6.9175    0.0000 H   0  0  0  0  0  0  0  0  0  0  0  0
  1  3  2  0  0  0  0
  1  4  2  0  0  0  0
  1  5  1  0  0  0  0
  1 17  1  0  0  0  0
  2 26  1  0  0  0  0
  5 11  1  0  0  0  0
  5 12  1  0  0  0  0
  6 13  1  0  0  0  0
  6 14  1  0  0  0  0
  6 15  1  0  0  0  0
  7 15  2  0  0  0  0
  7 22  1  0  0  0  0
  8 10  1  0  0  0  0
  8 18  1  0  0  0  0
  8 23  1  0  0  0  0
  9 18  1  0  0  0  0
  9 22  2  0  0  0  0
 10 19  2  0  0  0  0
 11 13  1  0  0  0  0
 11 32  1  0  0  0  0
 11 33  1  0  0  0  0
 12 14  1  0  0  0  0
 12 34  1  0  0  0  0
 12 35  1  0  0  0  0
 13 36  1  0  0  0  0
 13 37  1  0  0  0  0
 14 38  1  0  0  0  0
 14 39  1  0  0  0  0
 15 16  1  0  0  0  0
 16 18  2  0  0  0  0
 16 19  1  0  0  0  0
 17 20  2  0  0  0  0
 17 21  1  0  0  0  0
 19 40  1  0  0  0  0
 20 24  1  0  0  0  0
 20 41  1  0  0  0  0
 21 25  2  0  0  0  0
 21 42  1  0  0  0  0
 22 43  1  0  0  0  0
 23 27  2  0  0  0  0
 23 28  1  0  0  0  0
 24 26  2  0  0  0  0
 24 44  1  0  0  0  0
 25 26  1  0  0  0  0
 25 45  1  0  0  0  0
 27 29  1  0  0  0  0
 27 46  1  0  0  0  0
 28 30  2  0  0  0  0
 28 47  1  0  0  0  0
 29 31  2  0  0  0  0
 29 48  1  0  0  0  0
 30 31  1  0  0  0  0
 30 49  1  0  0  0  0
 31 50  1  0  0  0  0
M  END
> <PUBCHEM_COMPOUND_CID>
650008

> <PUBCHEM_COMPOUND_CANONICALIZED>
1

> <PUBCHEM_CACTVS_COMPLEXITY>
699

> <PUBCHEM_CACTVS_HBOND_ACCEPTOR>
8

> <PUBCHEM_CACTVS_HBOND_DONOR>
0

> <PUBCHEM_CACTVS_ROTATABLE_BOND>
4

> <PUBCHEM_CACTVS_SUBSKEYS>
AAADceB7sQBAAAAAAAAAAAAAAAAAAWAAAAA8eIEAAAAAAFgB/AAAHQQIQAAADAjBWww98d8IEAKiAjZnZHDShDsxgqAd2DgoZJiIaOLA2dGUpAhoiALIyCcQAAAAAAAAAAAAAAAAAAAAAAAAAAAAAAAAAA==

> <PUBCHEM_IUPAC_OPENEYE_NAME>
4-[4-(4-fluorophenyl)sulfonylpiperazin-1-yl]-1-phenyl-pyrazolo[3,4-d]pyrimidine

> <PUBCHEM_IUPAC_CAS_NAME>
4-[4-(4-fluorophenyl)sulfonyl-1-piperazinyl]-1-phenylpyrazolo[3,4-d]pyrimidine

> <PUBCHEM_IUPAC_NAME>
4-[4-(4-fluorophenyl)sulfonylpiperazin-1-yl]-1-phenylpyrazolo[3,4-d]pyrimidine

> <PUBCHEM_IUPAC_SYSTEMATIC_NAME>
4-[4-(4-fluorophenyl)sulfonylpiperazin-1-yl]-1-phenyl-pyrazolo[3,4-d]pyrimidine

> <PUBCHEM_IUPAC_TRADITIONAL_NAME>
4-[4-(4-fluorophenyl)sulfonylpiperazino]-1-phenyl-pyrazolo[3,4-d]pyrimidine

> <PUBCHEM_NIST_INCHI>
InChI=1S/C21H19FN6O2S/c22-16-6-8-18(9-7-16)31(29,30)27-12-10-26(11-13-27)20-19-14-25-28(21(19)24-15-23-20)17-4-2-1-3-5-17/h1-9,14-15H,10-13H2

> <PUBCHEM_NIST_INCHIKEY>
NLSXSKSGWRHPLQ-UHFFFAOYSA-N

> <PUBCHEM_XLOGP3_AA>
3

> <PUBCHEM_EXACT_MASS>
438.127423

> <PUBCHEM_MOLECULAR_FORMULA>
C21H19FN6O2S

> <PUBCHEM_MOLECULAR_WEIGHT>
438.477963

> <PUBCHEM_OPENEYE_CAN_SMILES>
C1CN(CCN1C2=NC=NC3=C2C=NN3C4=CC=CC=C4)S(=O)(=O)C5=CC=C(C=C5)F

> <PUBCHEM_OPENEYE_ISO_SMILES>
C1CN(CCN1C2=NC=NC3=C2C=NN3C4=CC=CC=C4)S(=O)(=O)C5=CC=C(C=C5)F

> <PUBCHEM_CACTVS_TPSA>
84.2

> <PUBCHEM_MONOISOTOPIC_WEIGHT>
438.127423

> <PUBCHEM_TOTAL_CHARGE>
0

> <PUBCHEM_HEAVY_ATOM_COUNT>
31

> <PUBCHEM_ATOM_DEF_STEREO_COUNT>
0

> <PUBCHEM_ATOM_UDEF_STEREO_COUNT>
0

> <PUBCHEM_BOND_DEF_STEREO_COUNT>
0

> <PUBCHEM_BOND_UDEF_STEREO_COUNT>
0

> <PUBCHEM_ISOTOPIC_ATOM_COUNT>
0

> <PUBCHEM_COMPONENT_COUNT>
1

> <PUBCHEM_CACTVS_TAUTO_COUNT>
1

> <PUBCHEM_COORDINATE_TYPE>
1
3

> <PUBCHEM_BONDANNOTATIONS>
10  19  8
15  16  8
16  18  8
16  19  8
17  20  8
17  21  8
20  24  8
21  25  8
23  27  8
23  28  8
24  26  8
25  26  8
27  29  8
28  30  8
29  31  8
30  31  8
7  15  8
7  22  8
8  10  8
8  18  8
9  18  8
9  22  8


$$$$
