650004
  -OEChem-07071010512D

 59 61  0     0  0  0  0  0  0999 V2000
    7.1279    1.5981    0.0000 S   0  0  0  0  0  0  0  0  0  0  0  0
    3.7320    3.5981    0.0000 O   0  0  0  0  0  0  0  0  0  0  0  0
    2.0000    0.5981    0.0000 O   0  0  0  0  0  0  0  0  0  0  0  0
    9.1279    1.5981    0.0000 O   0  0  0  0  0  0  0  0  0  0  0  0
   13.6279   -2.7320    0.0000 O   0  0  0  0  0  0  0  0  0  0  0  0
   14.6279   -1.0000    0.0000 O   0  0  0  0  0  0  0  0  0  0  0  0
    5.5443    2.4028    0.0000 N   0  0  0  0  0  0  0  0  0  0  0  0
    3.7320    0.5981    0.0000 N   0  0  0  0  0  0  0  0  0  0  0  0
    2.8660    2.0981    0.0000 N   0  0  0  0  0  0  0  0  0  0  0  0
    5.5443    0.7933    0.0000 N   0  0  0  0  0  0  0  0  0  0  0  0
    9.1279   -0.1340    0.0000 N   0  0  0  0  0  0  0  0  0  0  0  0
    4.5981    2.0981    0.0000 C   0  0  0  0  0  0  0  0  0  0  0  0
    4.5981    1.0981    0.0000 C   0  0  0  0  0  0  0  0  0  0  0  0
    5.8550    3.3533    0.0000 C   0  0  0  0  0  0  0  0  0  0  0  0
    6.1279    1.5981    0.0000 C   0  0  0  0  0  0  0  0  0  0  0  0
    3.7320    2.5981    0.0000 C   0  0  0  0  0  0  0  0  0  0  0  0
    2.8660    1.0981    0.0000 C   0  0  0  0  0  0  0  0  0  0  0  0
    3.7320   -0.4019    0.0000 C   0  0  0  0  0  0  0  0  0  0  0  0
    6.8335    3.5596    0.0000 C   0  0  0  0  0  0  0  0  0  0  0  0
    2.0000    2.5981    0.0000 C   0  0  0  0  0  0  0  0  0  0  0  0
   10.6279   -1.0000    0.0000 C   0  0  0  0  0  0  0  0  0  0  0  0
    7.6279    0.7321    0.0000 C   0  0  0  0  0  0  0  0  0  0  0  0
   10.1279   -0.1340    0.0000 C   0  0  0  0  0  0  0  0  0  0  0  0
   11.6279   -1.0000    0.0000 C   0  0  0  0  0  0  0  0  0  0  0  0
    8.6279    0.7321    0.0000 C   0  0  0  0  0  0  0  0  0  0  0  0
   12.1279   -1.8660    0.0000 C   0  0  0  0  0  0  0  0  0  0  0  0
   12.1279   -0.1340    0.0000 C   0  0  0  0  0  0  0  0  0  0  0  0
   13.1279   -1.8660    0.0000 C   0  0  0  0  0  0  0  0  0  0  0  0
   13.6279   -1.0000    0.0000 C   0  0  0  0  0  0  0  0  0  0  0  0
   13.1279   -0.1340    0.0000 C   0  0  0  0  0  0  0  0  0  0  0  0
   13.1279   -3.5981    0.0000 C   0  0  0  0  0  0  0  0  0  0  0  0
   15.1279   -0.1340    0.0000 C   0  0  0  0  0  0  0  0  0  0  0  0
    5.8344    3.9730    0.0000 H   0  0  0  0  0  0  0  0  0  0  0  0
    5.2411    3.4407    0.0000 H   0  0  0  0  0  0  0  0  0  0  0  0
    3.1120   -0.4019    0.0000 H   0  0  0  0  0  0  0  0  0  0  0  0
    3.7320   -1.0219    0.0000 H   0  0  0  0  0  0  0  0  0  0  0  0
    4.3520   -0.4019    0.0000 H   0  0  0  0  0  0  0  0  0  0  0  0
    6.9613    2.9529    0.0000 H   0  0  0  0  0  0  0  0  0  0  0  0
    7.4401    3.6874    0.0000 H   0  0  0  0  0  0  0  0  0  0  0  0
    6.7056    4.1662    0.0000 H   0  0  0  0  0  0  0  0  0  0  0  0
    2.3100    3.1350    0.0000 H   0  0  0  0  0  0  0  0  0  0  0  0
    1.4631    2.9081    0.0000 H   0  0  0  0  0  0  0  0  0  0  0  0
    1.6900    2.0611    0.0000 H   0  0  0  0  0  0  0  0  0  0  0  0
   10.0453   -1.2120    0.0000 H   0  0  0  0  0  0  0  0  0  0  0  0
   10.7356   -1.6106    0.0000 H   0  0  0  0  0  0  0  0  0  0  0  0
    7.0453    0.5200    0.0000 H   0  0  0  0  0  0  0  0  0  0  0  0
    7.7356    0.1215    0.0000 H   0  0  0  0  0  0  0  0  0  0  0  0
   10.7105    0.0781    0.0000 H   0  0  0  0  0  0  0  0  0  0  0  0
   10.0202    0.4766    0.0000 H   0  0  0  0  0  0  0  0  0  0  0  0
    8.8179   -0.6709    0.0000 H   0  0  0  0  0  0  0  0  0  0  0  0
   11.8179   -2.4030    0.0000 H   0  0  0  0  0  0  0  0  0  0  0  0
   11.8179    0.4030    0.0000 H   0  0  0  0  0  0  0  0  0  0  0  0
   13.4379    0.4030    0.0000 H   0  0  0  0  0  0  0  0  0  0  0  0
   12.5910   -3.2881    0.0000 H   0  0  0  0  0  0  0  0  0  0  0  0
   12.8179   -4.1350    0.0000 H   0  0  0  0  0  0  0  0  0  0  0  0
   13.6648   -3.9081    0.0000 H   0  0  0  0  0  0  0  0  0  0  0  0
   15.6648   -0.4440    0.0000 H   0  0  0  0  0  0  0  0  0  0  0  0
   15.4379    0.4030    0.0000 H   0  0  0  0  0  0  0  0  0  0  0  0
   14.5910    0.1760    0.0000 H   0  0  0  0  0  0  0  0  0  0  0  0
  1 15  1  0  0  0  0
  1 22  1  0  0  0  0
  2 16  2  0  0  0  0
  3 17  2  0  0  0  0
  4 25  2  0  0  0  0
  5 28  1  0  0  0  0
  5 31  1  0  0  0  0
  6 29  1  0  0  0  0
  6 32  1  0  0  0  0
  7 12  1  0  0  0  0
  7 14  1  0  0  0  0
  7 15  1  0  0  0  0
  8 13  1  0  0  0  0
  8 17  1  0  0  0  0
  8 18  1  0  0  0  0
  9 16  1  0  0  0  0
  9 17  1  0  0  0  0
  9 20  1  0  0  0  0
 10 13  1  0  0  0  0
 10 15  2  0  0  0  0
 11 23  1  0  0  0  0
 11 25  1  0  0  0  0
 11 50  1  0  0  0  0
 12 13  2  0  0  0  0
 12 16  1  0  0  0  0
 14 19  1  0  0  0  0
 14 33  1  0  0  0  0
 14 34  1  0  0  0  0
 18 35  1  0  0  0  0
 18 36  1  0  0  0  0
 18 37  1  0  0  0  0
 19 38  1  0  0  0  0
 19 39  1  0  0  0  0
 19 40  1  0  0  0  0
 20 41  1  0  0  0  0
 20 42  1  0  0  0  0
 20 43  1  0  0  0  0
 21 23  1  0  0  0  0
 21 24  1  0  0  0  0
 21 44  1  0  0  0  0
 21 45  1  0  0  0  0
 22 25  1  0  0  0  0
 22 46  1  0  0  0  0
 22 47  1  0  0  0  0
 23 48  1  0  0  0  0
 23 49  1  0  0  0  0
 24 26  2  0  0  0  0
 24 27  1  0  0  0  0
 26 28  1  0  0  0  0
 26 51  1  0  0  0  0
 27 30  2  0  0  0  0
 27 52  1  0  0  0  0
 28 29  2  0  0  0  0
 29 30  1  0  0  0  0
 30 53  1  0  0  0  0
 31 54  1  0  0  0  0
 31 55  1  0  0  0  0
 31 56  1  0  0  0  0
 32 57  1  0  0  0  0
 32 58  1  0  0  0  0
 32 59  1  0  0  0  0
M  END
> <PUBCHEM_COMPOUND_CID>
650004

> <PUBCHEM_COMPOUND_CANONICALIZED>
1

> <PUBCHEM_CACTVS_COMPLEXITY>
698

> <PUBCHEM_CACTVS_HBOND_ACCEPTOR>
6

> <PUBCHEM_CACTVS_HBOND_DONOR>
1

> <PUBCHEM_CACTVS_ROTATABLE_BOND>
9

> <PUBCHEM_CACTVS_SUBSKEYS>
AAADceB7uABAAAAAAAAAAAAAAAAAAWAAAAA8QAAAAAAAAFgBwAAAHgQQAAAADAzF3gaztpfMFAioAydydACC2C1nMLAJ2IGu3MiNbirE+TuUMKos1zPKqGeQ0LIOIAABAAAAQABAAAIAAACAAAAAAAAAAA==

> <PUBCHEM_IUPAC_OPENEYE_NAME>
N-[2-(3,4-dimethoxyphenyl)ethyl]-2-(7-ethyl-1,3-dimethyl-2,6-dioxo-purin-8-yl)sulfanyl-acetamide

> <PUBCHEM_IUPAC_CAS_NAME>
N-[2-(3,4-dimethoxyphenyl)ethyl]-2-[(7-ethyl-1,3-dimethyl-2,6-dioxo-8-purinyl)thio]acetamide

> <PUBCHEM_IUPAC_NAME>
N-[2-(3,4-dimethoxyphenyl)ethyl]-2-(7-ethyl-1,3-dimethyl-2,6-dioxopurin-8-yl)sulfanylacetamide

> <PUBCHEM_IUPAC_SYSTEMATIC_NAME>
N-[2-(3,4-dimethoxyphenyl)ethyl]-2-[7-ethyl-1,3-dimethyl-2,6-bis(oxidanylidene)purin-8-yl]sulfanyl-ethanamide

> <PUBCHEM_IUPAC_TRADITIONAL_NAME>
2-[(7-ethyl-2,6-diketo-1,3-dimethyl-purin-8-yl)thio]-N-homoveratryl-acetamide

> <PUBCHEM_NIST_INCHI>
InChI=1S/C21H27N5O5S/c1-6-26-17-18(24(2)21(29)25(3)19(17)28)23-20(26)32-12-16(27)22-10-9-13-7-8-14(30-4)15(11-13)31-5/h7-8,11H,6,9-10,12H2,1-5H3,(H,22,27)

> <PUBCHEM_NIST_INCHIKEY>
LPTGOTDBDBPVFJ-UHFFFAOYSA-N

> <PUBCHEM_XLOGP3_AA>
2

> <PUBCHEM_EXACT_MASS>
461.17329

> <PUBCHEM_MOLECULAR_FORMULA>
C21H27N5O5S

> <PUBCHEM_MOLECULAR_WEIGHT>
461.53458

> <PUBCHEM_OPENEYE_CAN_SMILES>
CCN1C2=C(N=C1SCC(=O)NCCC3=CC(=C(C=C3)OC)OC)N(C(=O)N(C2=O)C)C

> <PUBCHEM_OPENEYE_ISO_SMILES>
CCN1C2=C(N=C1SCC(=O)NCCC3=CC(=C(C=C3)OC)OC)N(C(=O)N(C2=O)C)C

> <PUBCHEM_CACTVS_TPSA>
106

> <PUBCHEM_MONOISOTOPIC_WEIGHT>
461.17329

> <PUBCHEM_TOTAL_CHARGE>
0

> <PUBCHEM_HEAVY_ATOM_COUNT>
32

> <PUBCHEM_ATOM_DEF_STEREO_COUNT>
0

> <PUBCHEM_ATOM_UDEF_STEREO_COUNT>
0

> <PUBCHEM_BOND_DEF_STEREO_COUNT>
0

> <PUBCHEM_BOND_UDEF_STEREO_COUNT>
0

> <PUBCHEM_ISOTOPIC_ATOM_COUNT>
0

> <PUBCHEM_COMPONENT_COUNT>
1

> <PUBCHEM_CACTVS_TAUTO_COUNT>
2

> <PUBCHEM_COORDINATE_TYPE>
1
3

> <PUBCHEM_BONDANNOTATIONS>
10  13  8
10  15  8
12  13  8
12  16  8
24  26  8
24  27  8
26  28  8
27  30  8
28  29  8
29  30  8
7  12  8
7  15  8
8  13  8
8  17  8
9  16  8
9  17  8


$$$$
