650002
  -OEChem-07071010512D

 49 51  0     0  0  0  0  0  0999 V2000
    3.7320    0.9970    0.0000 O   0  0  0  0  0  0  0  0  0  0  0  0
    2.0000   -2.0030    0.0000 O   0  0  0  0  0  0  0  0  0  0  0  0
   10.1279   -2.7350    0.0000 O   0  0  0  0  0  0  0  0  0  0  0  0
    5.5443   -0.1982    0.0000 N   0  0  0  0  0  0  0  0  0  0  0  0
    3.7320   -2.0030    0.0000 N   0  0  0  0  0  0  0  0  0  0  0  0
    5.5443   -1.8077    0.0000 N   0  0  0  0  0  0  0  0  0  0  0  0
    7.1279   -1.0030    0.0000 N   0  0  0  0  0  0  0  0  0  0  0  0
    2.8660   -0.5030    0.0000 N   0  0  0  0  0  0  0  0  0  0  0  0
    5.8550    0.7523    0.0000 C   0  0  0  0  0  0  0  0  0  0  0  0
    4.5981   -0.5030    0.0000 C   0  0  0  0  0  0  0  0  0  0  0  0
    6.8335    0.9585    0.0000 C   0  0  0  0  0  0  0  0  0  0  0  0
    6.1279   -1.0030    0.0000 C   0  0  0  0  0  0  0  0  0  0  0  0
    4.5981   -1.5030    0.0000 C   0  0  0  0  0  0  0  0  0  0  0  0
    7.1441    1.9090    0.0000 C   0  0  0  0  0  0  0  0  0  0  0  0
    3.7320   -0.0030    0.0000 C   0  0  0  0  0  0  0  0  0  0  0  0
    7.6279   -1.8690    0.0000 C   0  0  0  0  0  0  0  0  0  0  0  0
    8.1226    2.1152    0.0000 C   0  0  0  0  0  0  0  0  0  0  0  0
    2.8660   -1.5030    0.0000 C   0  0  0  0  0  0  0  0  0  0  0  0
    8.6279   -1.8690    0.0000 C   0  0  0  0  0  0  0  0  0  0  0  0
    3.7320   -3.0030    0.0000 C   0  0  0  0  0  0  0  0  0  0  0  0
    8.7905    1.3709    0.0000 C   0  0  0  0  0  0  0  0  0  0  0  0
    8.4333    3.0658    0.0000 C   0  0  0  0  0  0  0  0  0  0  0  0
    9.1279   -2.7350    0.0000 C   0  0  0  0  0  0  0  0  0  0  0  0
    9.7690    1.5772    0.0000 C   0  0  0  0  0  0  0  0  0  0  0  0
    9.4118    3.2720    0.0000 C   0  0  0  0  0  0  0  0  0  0  0  0
   10.0796    2.5277    0.0000 C   0  0  0  0  0  0  0  0  0  0  0  0
    5.8344    1.3719    0.0000 H   0  0  0  0  0  0  0  0  0  0  0  0
    5.2411    0.8396    0.0000 H   0  0  0  0  0  0  0  0  0  0  0  0
    6.8540    0.3388    0.0000 H   0  0  0  0  0  0  0  0  0  0  0  0
    7.4473    0.8711    0.0000 H   0  0  0  0  0  0  0  0  0  0  0  0
    7.1236    2.5287    0.0000 H   0  0  0  0  0  0  0  0  0  0  0  0
    6.5303    1.9964    0.0000 H   0  0  0  0  0  0  0  0  0  0  0  0
    7.4379   -0.4660    0.0000 H   0  0  0  0  0  0  0  0  0  0  0  0
    7.0453   -2.0811    0.0000 H   0  0  0  0  0  0  0  0  0  0  0  0
    7.7356   -2.4796    0.0000 H   0  0  0  0  0  0  0  0  0  0  0  0
    2.3291   -0.1930    0.0000 H   0  0  0  0  0  0  0  0  0  0  0  0
    9.2105   -1.6570    0.0000 H   0  0  0  0  0  0  0  0  0  0  0  0
    8.5202   -1.2584    0.0000 H   0  0  0  0  0  0  0  0  0  0  0  0
    3.1120   -3.0030    0.0000 H   0  0  0  0  0  0  0  0  0  0  0  0
    3.7320   -3.6230    0.0000 H   0  0  0  0  0  0  0  0  0  0  0  0
    4.3520   -3.0030    0.0000 H   0  0  0  0  0  0  0  0  0  0  0  0
    8.5979    0.7816    0.0000 H   0  0  0  0  0  0  0  0  0  0  0  0
    8.0192    3.5272    0.0000 H   0  0  0  0  0  0  0  0  0  0  0  0
    8.5453   -2.9471    0.0000 H   0  0  0  0  0  0  0  0  0  0  0  0
    9.2356   -3.3456    0.0000 H   0  0  0  0  0  0  0  0  0  0  0  0
   10.1830    1.1157    0.0000 H   0  0  0  0  0  0  0  0  0  0  0  0
    9.6044    3.8613    0.0000 H   0  0  0  0  0  0  0  0  0  0  0  0
   10.6863    2.6555    0.0000 H   0  0  0  0  0  0  0  0  0  0  0  0
   10.4379   -3.2720    0.0000 H   0  0  0  0  0  0  0  0  0  0  0  0
  1 15  2  0  0  0  0
  2 18  2  0  0  0  0
  3 23  1  0  0  0  0
  3 49  1  0  0  0  0
  4  9  1  0  0  0  0
  4 10  1  0  0  0  0
  4 12  1  0  0  0  0
  5 13  1  0  0  0  0
  5 18  1  0  0  0  0
  5 20  1  0  0  0  0
  6 12  2  0  0  0  0
  6 13  1  0  0  0  0
  7 12  1  0  0  0  0
  7 16  1  0  0  0  0
  7 33  1  0  0  0  0
  8 15  1  0  0  0  0
  8 18  1  0  0  0  0
  8 36  1  0  0  0  0
  9 11  1  0  0  0  0
  9 27  1  0  0  0  0
  9 28  1  0  0  0  0
 10 13  2  0  0  0  0
 10 15  1  0  0  0  0
 11 14  1  0  0  0  0
 11 29  1  0  0  0  0
 11 30  1  0  0  0  0
 14 17  1  0  0  0  0
 14 31  1  0  0  0  0
 14 32  1  0  0  0  0
 16 19  1  0  0  0  0
 16 34  1  0  0  0  0
 16 35  1  0  0  0  0
 17 21  2  0  0  0  0
 17 22  1  0  0  0  0
 19 23  1  0  0  0  0
 19 37  1  0  0  0  0
 19 38  1  0  0  0  0
 20 39  1  0  0  0  0
 20 40  1  0  0  0  0
 20 41  1  0  0  0  0
 21 24  1  0  0  0  0
 21 42  1  0  0  0  0
 22 25  2  0  0  0  0
 22 43  1  0  0  0  0
 23 44  1  0  0  0  0
 23 45  1  0  0  0  0
 24 26  2  0  0  0  0
 24 46  1  0  0  0  0
 25 26  1  0  0  0  0
 25 47  1  0  0  0  0
 26 48  1  0  0  0  0
M  END
> <PUBCHEM_COMPOUND_CID>
650002

> <PUBCHEM_COMPOUND_CANONICALIZED>
1

> <PUBCHEM_CACTVS_COMPLEXITY>
497

> <PUBCHEM_CACTVS_HBOND_ACCEPTOR>
5

> <PUBCHEM_CACTVS_HBOND_DONOR>
3

> <PUBCHEM_CACTVS_ROTATABLE_BOND>
8

> <PUBCHEM_CACTVS_SUBSKEYS>
AAADceB7sAAAAAAAAAAAAAAAAAAAAWAAAAA8QAAAAAAAAFgBwAAAHgAQCAAADAjhngYzsJfMEgCoAydydACCgC0nEKAJ2IGoVMiIeCrA2TCUYIgqlyLIiGcQgIAOAAAAAAAAAAAAAAAAAAAAAAAAAAAAAA==

> <PUBCHEM_IUPAC_OPENEYE_NAME>
8-(3-hydroxypropylamino)-3-methyl-7-(3-phenylpropyl)purine-2,6-dione

> <PUBCHEM_IUPAC_CAS_NAME>
8-(3-hydroxypropylamino)-3-methyl-7-(3-phenylpropyl)purine-2,6-dione

> <PUBCHEM_IUPAC_NAME>
8-(3-hydroxypropylamino)-3-methyl-7-(3-phenylpropyl)purine-2,6-dione

> <PUBCHEM_IUPAC_SYSTEMATIC_NAME>
3-methyl-8-(3-oxidanylpropylamino)-7-(3-phenylpropyl)purine-2,6-dione

> <PUBCHEM_IUPAC_TRADITIONAL_NAME>
8-(3-hydroxypropylamino)-3-methyl-7-(3-phenylpropyl)xanthine

> <PUBCHEM_NIST_INCHI>
InChI=1S/C18H23N5O3/c1-22-15-14(16(25)21-18(22)26)23(17(20-15)19-10-6-12-24)11-5-9-13-7-3-2-4-8-13/h2-4,7-8,24H,5-6,9-12H2,1H3,(H,19,20)(H,21,25,26)

> <PUBCHEM_NIST_INCHIKEY>
JIOQFGLCEPFQHB-UHFFFAOYSA-N

> <PUBCHEM_XLOGP3_AA>
2.2

> <PUBCHEM_EXACT_MASS>
357.18009

> <PUBCHEM_MOLECULAR_FORMULA>
C18H23N5O3

> <PUBCHEM_MOLECULAR_WEIGHT>
357.40692

> <PUBCHEM_OPENEYE_CAN_SMILES>
CN1C2=C(C(=O)NC1=O)N(C(=N2)NCCCO)CCCC3=CC=CC=C3

> <PUBCHEM_OPENEYE_ISO_SMILES>
CN1C2=C(C(=O)NC1=O)N(C(=N2)NCCCO)CCCC3=CC=CC=C3

> <PUBCHEM_CACTVS_TPSA>
99.5

> <PUBCHEM_MONOISOTOPIC_WEIGHT>
357.18009

> <PUBCHEM_TOTAL_CHARGE>
0

> <PUBCHEM_HEAVY_ATOM_COUNT>
26

> <PUBCHEM_ATOM_DEF_STEREO_COUNT>
0

> <PUBCHEM_ATOM_UDEF_STEREO_COUNT>
0

> <PUBCHEM_BOND_DEF_STEREO_COUNT>
0

> <PUBCHEM_BOND_UDEF_STEREO_COUNT>
0

> <PUBCHEM_ISOTOPIC_ATOM_COUNT>
0

> <PUBCHEM_COMPONENT_COUNT>
1

> <PUBCHEM_CACTVS_TAUTO_COUNT>
11

> <PUBCHEM_COORDINATE_TYPE>
1
3

> <PUBCHEM_BONDANNOTATIONS>
10  13  8
10  15  8
17  21  8
17  22  8
21  24  8
22  25  8
24  26  8
25  26  8
4  10  8
4  12  8
5  13  8
5  18  8
6  12  8
6  13  8
8  15  8
8  18  8


$$$$
