650001
  -OEChem-07071010512D

 61 64  0     0  0  0  0  0  0999 V2000
    7.0468    0.0839    0.0000 O   0  0  0  0  0  0  0  0  0  0  0  0
   12.2708    1.0492    0.0000 O   0  0  0  0  0  0  0  0  0  0  0  0
   12.2708    3.1186    0.0000 O   0  0  0  0  0  0  0  0  0  0  0  0
    7.9128    2.5839    0.0000 O   0  0  0  0  0  0  0  0  0  0  0  0
    5.3147    0.0839    0.0000 O   0  0  0  0  0  0  0  0  0  0  0  0
    2.0000    0.7475    0.0000 O   0  0  0  0  0  0  0  0  0  0  0  0
    7.9128   -1.4161    0.0000 N   0  0  0  0  0  0  0  0  0  0  0  0
    8.7788    1.0839    0.0000 N   0  0  0  0  0  0  0  0  0  0  0  0
    4.4487    1.5839    0.0000 N   0  0  0  0  0  0  0  0  0  0  0  0
    2.6691    1.4906    0.0000 N   0  0  0  0  0  0  0  0  0  0  0  0
    7.0468   -1.9161    0.0000 C   0  0  0  0  0  0  0  0  0  0  0  0
    6.1332   -1.5094    0.0000 C   0  0  0  0  0  0  0  0  0  0  0  0
    6.9422   -2.9106    0.0000 C   0  0  0  0  0  0  0  0  0  0  0  0
    5.4641   -2.2525    0.0000 C   0  0  0  0  0  0  0  0  0  0  0  0
    5.9641   -3.1186    0.0000 C   0  0  0  0  0  0  0  0  0  0  0  0
    7.9128   -0.4161    0.0000 C   0  0  0  0  0  0  0  0  0  0  0  0
    8.7788    0.0839    0.0000 C   0  0  0  0  0  0  0  0  0  0  0  0
    9.6448    1.5839    0.0000 C   0  0  0  0  0  0  0  0  0  0  0  0
    7.9128    1.5839    0.0000 C   0  0  0  0  0  0  0  0  0  0  0  0
    7.0468    1.0839    0.0000 C   0  0  0  0  0  0  0  0  0  0  0  0
   10.5109    1.0839    0.0000 C   0  0  0  0  0  0  0  0  0  0  0  0
    9.6448    2.5839    0.0000 C   0  0  0  0  0  0  0  0  0  0  0  0
   11.3769    1.5839    0.0000 C   0  0  0  0  0  0  0  0  0  0  0  0
    6.1808    1.5839    0.0000 C   0  0  0  0  0  0  0  0  0  0  0  0
   11.3769    2.5839    0.0000 C   0  0  0  0  0  0  0  0  0  0  0  0
   10.5109    3.0839    0.0000 C   0  0  0  0  0  0  0  0  0  0  0  0
   13.1769    1.5631    0.0000 C   0  0  0  0  0  0  0  0  0  0  0  0
   13.1769    2.6047    0.0000 C   0  0  0  0  0  0  0  0  0  0  0  0
    5.3147    1.0839    0.0000 C   0  0  0  0  0  0  0  0  0  0  0  0
    3.5827    1.0839    0.0000 C   0  0  0  0  0  0  0  0  0  0  0  0
    3.4782    0.0894    0.0000 C   0  0  0  0  0  0  0  0  0  0  0  0
    2.5000   -0.1185    0.0000 C   0  0  0  0  0  0  0  0  0  0  0  0
    2.0933   -1.0321    0.0000 C   0  0  0  0  0  0  0  0  0  0  0  0
    7.0143   -1.2970    0.0000 H   0  0  0  0  0  0  0  0  0  0  0  0
    6.4432   -0.9724    0.0000 H   0  0  0  0  0  0  0  0  0  0  0  0
    5.6316   -1.1450    0.0000 H   0  0  0  0  0  0  0  0  0  0  0  0
    7.0071   -3.5272    0.0000 H   0  0  0  0  0  0  0  0  0  0  0  0
    7.5622   -2.9106    0.0000 H   0  0  0  0  0  0  0  0  0  0  0  0
    5.0492   -1.7918    0.0000 H   0  0  0  0  0  0  0  0  0  0  0  0
    4.9625   -2.6170    0.0000 H   0  0  0  0  0  0  0  0  0  0  0  0
    5.3977   -3.3707    0.0000 H   0  0  0  0  0  0  0  0  0  0  0  0
    6.1557   -3.7082    0.0000 H   0  0  0  0  0  0  0  0  0  0  0  0
    8.4497   -1.7261    0.0000 H   0  0  0  0  0  0  0  0  0  0  0  0
    8.9909   -0.4987    0.0000 H   0  0  0  0  0  0  0  0  0  0  0  0
    9.3894    0.1915    0.0000 H   0  0  0  0  0  0  0  0  0  0  0  0
    6.6482    0.6089    0.0000 H   0  0  0  0  0  0  0  0  0  0  0  0
    7.4453    0.6089    0.0000 H   0  0  0  0  0  0  0  0  0  0  0  0
   10.5109    0.4639    0.0000 H   0  0  0  0  0  0  0  0  0  0  0  0
    9.1079    2.8939    0.0000 H   0  0  0  0  0  0  0  0  0  0  0  0
    6.5793    2.0588    0.0000 H   0  0  0  0  0  0  0  0  0  0  0  0
    5.7822    2.0588    0.0000 H   0  0  0  0  0  0  0  0  0  0  0  0
   10.5109    3.7039    0.0000 H   0  0  0  0  0  0  0  0  0  0  0  0
   13.3860    0.9794    0.0000 H   0  0  0  0  0  0  0  0  0  0  0  0
   13.7878    1.6692    0.0000 H   0  0  0  0  0  0  0  0  0  0  0  0
   13.7878    2.4986    0.0000 H   0  0  0  0  0  0  0  0  0  0  0  0
   13.3860    3.1884    0.0000 H   0  0  0  0  0  0  0  0  0  0  0  0
    4.4487    2.2039    0.0000 H   0  0  0  0  0  0  0  0  0  0  0  0
    3.9389   -0.3255    0.0000 H   0  0  0  0  0  0  0  0  0  0  0  0
    1.5269   -0.7799    0.0000 H   0  0  0  0  0  0  0  0  0  0  0  0
    1.8411   -1.5985    0.0000 H   0  0  0  0  0  0  0  0  0  0  0  0
    2.6597   -1.2843    0.0000 H   0  0  0  0  0  0  0  0  0  0  0  0
  1 16  2  0  0  0  0
  2 23  1  0  0  0  0
  2 27  1  0  0  0  0
  3 25  1  0  0  0  0
  3 28  1  0  0  0  0
  4 19  2  0  0  0  0
  5 29  2  0  0  0  0
  6 10  1  0  0  0  0
  6 32  1  0  0  0  0
  7 11  1  0  0  0  0
  7 16  1  0  0  0  0
  7 43  1  0  0  0  0
  8 17  1  0  0  0  0
  8 18  1  0  0  0  0
  8 19  1  0  0  0  0
  9 29  1  0  0  0  0
  9 30  1  0  0  0  0
  9 57  1  0  0  0  0
 10 30  2  0  0  0  0
 11 12  1  0  0  0  0
 11 13  1  0  0  0  0
 11 34  1  0  0  0  0
 12 14  1  0  0  0  0
 12 35  1  0  0  0  0
 12 36  1  0  0  0  0
 13 15  1  0  0  0  0
 13 37  1  0  0  0  0
 13 38  1  0  0  0  0
 14 15  1  0  0  0  0
 14 39  1  0  0  0  0
 14 40  1  0  0  0  0
 15 41  1  0  0  0  0
 15 42  1  0  0  0  0
 16 17  1  0  0  0  0
 17 44  1  0  0  0  0
 17 45  1  0  0  0  0
 18 21  2  0  0  0  0
 18 22  1  0  0  0  0
 19 20  1  0  0  0  0
 20 24  1  0  0  0  0
 20 46  1  0  0  0  0
 20 47  1  0  0  0  0
 21 23  1  0  0  0  0
 21 48  1  0  0  0  0
 22 26  2  0  0  0  0
 22 49  1  0  0  0  0
 23 25  2  0  0  0  0
 24 29  1  0  0  0  0
 24 50  1  0  0  0  0
 24 51  1  0  0  0  0
 25 26  1  0  0  0  0
 26 52  1  0  0  0  0
 27 28  1  0  0  0  0
 27 53  1  0  0  0  0
 27 54  1  0  0  0  0
 28 55  1  0  0  0  0
 28 56  1  0  0  0  0
 30 31  1  0  0  0  0
 31 32  2  0  0  0  0
 31 58  1  0  0  0  0
 32 33  1  0  0  0  0
 33 59  1  0  0  0  0
 33 60  1  0  0  0  0
 33 61  1  0  0  0  0
M  END
> <PUBCHEM_COMPOUND_CID>
650001

> <PUBCHEM_COMPOUND_CANONICALIZED>
1

> <PUBCHEM_CACTVS_COMPLEXITY>
700

> <PUBCHEM_CACTVS_HBOND_ACCEPTOR>
7

> <PUBCHEM_CACTVS_HBOND_DONOR>
2

> <PUBCHEM_CACTVS_ROTATABLE_BOND>
8

> <PUBCHEM_CACTVS_SUBSKEYS>
AAADceB7uAAAAAAAAAAAAAAAAAAAAeIAAAA0QAAAAAAAAACRwAAAHgAUAAAACCzhkgYz9pPQBACpAKdycgCCCAAlIgApmKG+7NqNZjrEubuWOKrm1xvK6Ee1UAMAAEAAAgAAQAAAgAAEAACAAAAAAAAAAA==

> <PUBCHEM_IUPAC_OPENEYE_NAME>
N'-[2-(cyclopentylamino)-2-oxo-ethyl]-N'-(2,3-dihydro-1,4-benzodioxin-6-yl)-N-(5-methylisoxazol-3-yl)butanediamide

> <PUBCHEM_IUPAC_CAS_NAME>
N'-[2-(cyclopentylamino)-2-oxoethyl]-N'-(2,3-dihydro-1,4-benzodioxin-6-yl)-N-(5-methyl-3-isoxazolyl)butanediamide

> <PUBCHEM_IUPAC_NAME>
N'-[2-(cyclopentylamino)-2-oxoethyl]-N'-(2,3-dihydro-1,4-benzodioxin-6-yl)-N-(5-methyl-1,2-oxazol-3-yl)butanediamide

> <PUBCHEM_IUPAC_SYSTEMATIC_NAME>
N'-[2-(cyclopentylamino)-2-oxidanylidene-ethyl]-N'-(2,3-dihydro-1,4-benzodioxin-6-yl)-N-(5-methyl-1,2-oxazol-3-yl)butanediamide

> <PUBCHEM_IUPAC_TRADITIONAL_NAME>
N'-[2-(cyclopentylamino)-2-keto-ethyl]-N'-(2,3-dihydro-1,4-benzodioxin-6-yl)-N-(5-methylisoxazol-3-yl)succinamide

> <PUBCHEM_NIST_INCHI>
InChI=1S/C23H28N4O6/c1-15-12-20(26-33-15)25-21(28)8-9-23(30)27(14-22(29)24-16-4-2-3-5-16)17-6-7-18-19(13-17)32-11-10-31-18/h6-7,12-13,16H,2-5,8-11,14H2,1H3,(H,24,29)(H,25,26,28)

> <PUBCHEM_NIST_INCHIKEY>
DFGRXLCBXZBMEZ-UHFFFAOYSA-N

> <PUBCHEM_XLOGP3_AA>
1.5

> <PUBCHEM_EXACT_MASS>
456.200885

> <PUBCHEM_MOLECULAR_FORMULA>
C23H28N4O6

> <PUBCHEM_MOLECULAR_WEIGHT>
456.49162

> <PUBCHEM_OPENEYE_CAN_SMILES>
CC1=CC(=NO1)NC(=O)CCC(=O)N(CC(=O)NC2CCCC2)C3=CC4=C(C=C3)OCCO4

> <PUBCHEM_OPENEYE_ISO_SMILES>
CC1=CC(=NO1)NC(=O)CCC(=O)N(CC(=O)NC2CCCC2)C3=CC4=C(C=C3)OCCO4

> <PUBCHEM_CACTVS_TPSA>
123

> <PUBCHEM_MONOISOTOPIC_WEIGHT>
456.200885

> <PUBCHEM_TOTAL_CHARGE>
0

> <PUBCHEM_HEAVY_ATOM_COUNT>
33

> <PUBCHEM_ATOM_DEF_STEREO_COUNT>
0

> <PUBCHEM_ATOM_UDEF_STEREO_COUNT>
0

> <PUBCHEM_BOND_DEF_STEREO_COUNT>
0

> <PUBCHEM_BOND_UDEF_STEREO_COUNT>
0

> <PUBCHEM_ISOTOPIC_ATOM_COUNT>
0

> <PUBCHEM_COMPONENT_COUNT>
1

> <PUBCHEM_CACTVS_TAUTO_COUNT>
16

> <PUBCHEM_COORDINATE_TYPE>
1
3

> <PUBCHEM_BONDANNOTATIONS>
10  30  8
18  21  8
18  22  8
21  23  8
22  26  8
23  25  8
25  26  8
30  31  8
31  32  8
6  10  8
6  32  8


$$$$
