650010
  -OEChem-07071010512D

 40 42  0     0  0  0  0  0  0999 V2000
    8.5817   -1.1910    0.0000 S   0  0  0  0  0  0  0  0  0  0  0  0
    5.4641   -1.5000    0.0000 N   0  0  0  0  0  0  0  0  0  0  0  0
    4.5981    0.0000    0.0000 N   0  0  0  0  0  0  0  0  0  0  0  0
    2.8660    2.0000    0.0000 N   0  0  0  0  0  0  0  0  0  0  0  0
    6.4103   -1.1953    0.0000 N   0  0  0  0  0  0  0  0  0  0  0  0
    4.5981   -3.0000    0.0000 N   0  0  0  0  0  0  0  0  0  0  0  0
    3.7320    0.5000    0.0000 C   0  0  0  0  0  0  0  0  0  0  0  0
    4.5981   -1.0000    0.0000 C   0  0  0  0  0  0  0  0  0  0  0  0
    3.7320    1.5000    0.0000 C   0  0  0  0  0  0  0  0  0  0  0  0
    5.4641   -2.5000    0.0000 C   0  0  0  0  0  0  0  0  0  0  0  0
    3.7320   -1.5000    0.0000 C   0  0  0  0  0  0  0  0  0  0  0  0
    6.9939   -2.0000    0.0000 C   0  0  0  0  0  0  0  0  0  0  0  0
    6.4103   -2.8047    0.0000 C   0  0  0  0  0  0  0  0  0  0  0  0
    3.7320   -2.5000    0.0000 C   0  0  0  0  0  0  0  0  0  0  0  0
    7.9939   -2.0000    0.0000 C   0  0  0  0  0  0  0  0  0  0  0  0
    2.8660    3.0000    0.0000 C   0  0  0  0  0  0  0  0  0  0  0  0
    2.0000    1.5000    0.0000 C   0  0  0  0  0  0  0  0  0  0  0  0
    2.8660   -3.0000    0.0000 C   0  0  0  0  0  0  0  0  0  0  0  0
    8.5817   -2.8090    0.0000 C   0  0  0  0  0  0  0  0  0  0  0  0
    9.5328   -2.5000    0.0000 C   0  0  0  0  0  0  0  0  0  0  0  0
    9.5328   -1.5000    0.0000 C   0  0  0  0  0  0  0  0  0  0  0  0
    3.1215    0.6077    0.0000 H   0  0  0  0  0  0  0  0  0  0  0  0
    3.5200   -0.0826    0.0000 H   0  0  0  0  0  0  0  0  0  0  0  0
    4.3426    1.3923    0.0000 H   0  0  0  0  0  0  0  0  0  0  0  0
    3.9441    2.0826    0.0000 H   0  0  0  0  0  0  0  0  0  0  0  0
    5.1350    0.3100    0.0000 H   0  0  0  0  0  0  0  0  0  0  0  0
    3.1951   -1.1900    0.0000 H   0  0  0  0  0  0  0  0  0  0  0  0
    6.6029   -3.3940    0.0000 H   0  0  0  0  0  0  0  0  0  0  0  0
    3.4860    3.0000    0.0000 H   0  0  0  0  0  0  0  0  0  0  0  0
    2.8660    3.6200    0.0000 H   0  0  0  0  0  0  0  0  0  0  0  0
    2.2460    3.0000    0.0000 H   0  0  0  0  0  0  0  0  0  0  0  0
    1.6900    2.0369    0.0000 H   0  0  0  0  0  0  0  0  0  0  0  0
    1.4631    1.1900    0.0000 H   0  0  0  0  0  0  0  0  0  0  0  0
    2.3100    0.9631    0.0000 H   0  0  0  0  0  0  0  0  0  0  0  0
    2.5560   -2.4631    0.0000 H   0  0  0  0  0  0  0  0  0  0  0  0
    2.3291   -3.3100    0.0000 H   0  0  0  0  0  0  0  0  0  0  0  0
    3.1760   -3.5369    0.0000 H   0  0  0  0  0  0  0  0  0  0  0  0
    8.3901   -3.3987    0.0000 H   0  0  0  0  0  0  0  0  0  0  0  0
   10.0344   -2.8644    0.0000 H   0  0  0  0  0  0  0  0  0  0  0  0
   10.0344   -1.1356    0.0000 H   0  0  0  0  0  0  0  0  0  0  0  0
  1 15  1  0  0  0  0
  1 21  1  0  0  0  0
  2  5  1  0  0  0  0
  2  8  1  0  0  0  0
  2 10  1  0  0  0  0
  3  7  1  0  0  0  0
  3  8  1  0  0  0  0
  3 26  1  0  0  0  0
  4  9  1  0  0  0  0
  4 16  1  0  0  0  0
  4 17  1  0  0  0  0
  5 12  2  0  0  0  0
  6 10  1  0  0  0  0
  6 14  2  0  0  0  0
  7  9  1  0  0  0  0
  7 22  1  0  0  0  0
  7 23  1  0  0  0  0
  8 11  2  0  0  0  0
  9 24  1  0  0  0  0
  9 25  1  0  0  0  0
 10 13  2  0  0  0  0
 11 14  1  0  0  0  0
 11 27  1  0  0  0  0
 12 13  1  0  0  0  0
 12 15  1  0  0  0  0
 13 28  1  0  0  0  0
 14 18  1  0  0  0  0
 15 19  2  0  0  0  0
 16 29  1  0  0  0  0
 16 30  1  0  0  0  0
 16 31  1  0  0  0  0
 17 32  1  0  0  0  0
 17 33  1  0  0  0  0
 17 34  1  0  0  0  0
 18 35  1  0  0  0  0
 18 36  1  0  0  0  0
 18 37  1  0  0  0  0
 19 20  1  0  0  0  0
 19 38  1  0  0  0  0
 20 21  2  0  0  0  0
 20 39  1  0  0  0  0
 21 40  1  0  0  0  0
M  END
> <PUBCHEM_COMPOUND_CID>
650010

> <PUBCHEM_COMPOUND_CANONICALIZED>
1

> <PUBCHEM_CACTVS_COMPLEXITY>
340

> <PUBCHEM_CACTVS_HBOND_ACCEPTOR>
4

> <PUBCHEM_CACTVS_HBOND_DONOR>
1

> <PUBCHEM_CACTVS_ROTATABLE_BOND>
5

> <PUBCHEM_CACTVS_SUBSKEYS>
AAADceBzgABAAAAAAAAAAAAAAAAAAWJAAAAsAAAAAAAAAFgB+AAAHAQYAAAACAjFVwSzsZ/IEAimASZiZACTBIMhChBdmLg4ZJiIYKLg2dGUpAh4mALoyCcQgAAAAAAAAAAAAAAAAAAAAAAAAAAAAAAAAA==

> <PUBCHEM_IUPAC_OPENEYE_NAME>
N',N'-dimethyl-N-[5-methyl-2-(2-thienyl)pyrazolo[1,5-a]pyrimidin-7-yl]ethane-1,2-diamine

> <PUBCHEM_IUPAC_CAS_NAME>
N',N'-dimethyl-N-(5-methyl-2-thiophen-2-yl-7-pyrazolo[1,5-a]pyrimidinyl)ethane-1,2-diamine

> <PUBCHEM_IUPAC_NAME>
N',N'-dimethyl-N-(5-methyl-2-thiophen-2-ylpyrazolo[1,5-a]pyrimidin-7-yl)ethane-1,2-diamine

> <PUBCHEM_IUPAC_SYSTEMATIC_NAME>
N',N'-dimethyl-N-(5-methyl-2-thiophen-2-yl-pyrazolo[1,5-a]pyrimidin-7-yl)ethane-1,2-diamine

> <PUBCHEM_IUPAC_TRADITIONAL_NAME>
dimethyl-[2-[[5-methyl-2-(2-thienyl)pyrazolo[1,5-a]pyrimidin-7-yl]amino]ethyl]amine

> <PUBCHEM_NIST_INCHI>
InChI=1S/C15H19N5S/c1-11-9-14(16-6-7-19(2)3)20-15(17-11)10-12(18-20)13-5-4-8-21-13/h4-5,8-10,16H,6-7H2,1-3H3

> <PUBCHEM_NIST_INCHIKEY>
VUWFMNIAVRCQHW-UHFFFAOYSA-N

> <PUBCHEM_XLOGP3_AA>
2.5

> <PUBCHEM_EXACT_MASS>
301.136116

> <PUBCHEM_MOLECULAR_FORMULA>
C15H19N5S

> <PUBCHEM_MOLECULAR_WEIGHT>
301.40986

> <PUBCHEM_OPENEYE_CAN_SMILES>
CC1=NC2=CC(=NN2C(=C1)NCCN(C)C)C3=CC=CS3

> <PUBCHEM_OPENEYE_ISO_SMILES>
CC1=NC2=CC(=NN2C(=C1)NCCN(C)C)C3=CC=CS3

> <PUBCHEM_CACTVS_TPSA>
45.5

> <PUBCHEM_MONOISOTOPIC_WEIGHT>
301.136116

> <PUBCHEM_TOTAL_CHARGE>
0

> <PUBCHEM_HEAVY_ATOM_COUNT>
21

> <PUBCHEM_ATOM_DEF_STEREO_COUNT>
0

> <PUBCHEM_ATOM_UDEF_STEREO_COUNT>
0

> <PUBCHEM_BOND_DEF_STEREO_COUNT>
0

> <PUBCHEM_BOND_UDEF_STEREO_COUNT>
0

> <PUBCHEM_ISOTOPIC_ATOM_COUNT>
0

> <PUBCHEM_COMPONENT_COUNT>
1

> <PUBCHEM_CACTVS_TAUTO_COUNT>
8

> <PUBCHEM_COORDINATE_TYPE>
1
3

> <PUBCHEM_BONDANNOTATIONS>
1  15  8
1  21  8
10  13  8
11  14  8
12  13  8
15  19  8
19  20  8
2  10  8
2  5  8
2  8  8
20  21  8
5  12  8
6  10  8
6  14  8
8  11  8


$$$$
